rts3.m
Bus.con = [ ... 
  101  138  1  0  2  1;
  102  138  1  0  2  1;
  103  138  1  0  2  1;
  104  138  1  0  2  1;
  105  138  1  0  2  1;
  106  138  1  0  2  1;
  107  138  1  0  2  1;
  108  138  1  0  2  1;
  109  138  1  0  2  1;
  110  138  1  0  2  1;
  111  230  1  0  2  1;
  112  230  1  0  2  1;
  113  230  1  0  2  1;
  114  230  1  0  2  1;
  115  230  1  0  2  1;
  116  230  1  0  2  1;
  117  230  1  0  2  1;
  118  230  1  0  2  1;
  119  230  1  0  2  1;
  120  230  1  0  2  1;
  121  230  1  0  2  1;
  122  230  1  0  2  1;
  123  230  1  0  2  1;
  124  230  1  0  2  1;
  201  138  1  0  2  1;
  202  138  1  0  2  1;
  203  138  1  0  2  1;
  204  138  1  0  2  1;
  205  138  1  0  2  1;
  206  138  1  0  2  1;
  207  138  1  0  2  1;
  208  138  1  0  2  1;
  209  138  1  0  2  1;
  210  138  1  0  2  1;
  211  230  1  0  2  1;
  212  230  1  0  2  1;
  213  230  1  0  2  1;
  214  230  1  0  2  1;
  215  230  1  0  2  1;
  216  230  1  0  2  1;
  217  230  1  0  2  1;
  218  230  1  0  2  1;
  219  230  1  0  2  1;
  220  230  1  0  2  1;
  221  230  1  0  2  1;
  222  230  1  0  2  1;
  223  230  1  0  2  1;
  224  230  1  0  2  1;
  301  138  1  0  2  1;
  302  138  1  0  2  1;
  303  138  1  0  2  1;
  304  138  1  0  2  1;
  305  138  1  0  2  1;
  306  138  1  0  2  1;
  307  138  1  0  2  1;
  308  138  1  0  2  1;
  309  138  1  0  2  1;
  310  138  1  0  2  1;
  311  230  1  0  2  1;
  312  230  1  0  2  1;
  313  230  1  0  2  1;
  314  230  1  0  2  1;
  315  230  1  0  2  1;
  316  230  1  0  2  1;
  317  230  1  0  2  1;
  318  230  1  0  2  1;
  319  230  1  0  2  1;
  320  230  1  0  2  1;
  321  230  1  0  2  1;
  322  230  1  0  2  1;
  323  230  1  0  2  1;
  324  230  1  0  2  1;
  325  230  1  0  2  1;
 ];

Line.con = [ ... 
 101  102  100  138  60  0  0    0.0026  0.0139  0.4611  0      0  1.93  0  2     1;
 101  103  100  138  60  0  0    0.0546  0.2112  0.0572  0      0  2.08  0  2.2   1;
 101  105  100  138  60  0  0    0.0218  0.0845  0.0229  0      0  2.08  0  2.2   1;
 102  104  100  138  60  0  0    0.0328  0.1267  0.0343  0      0  2.08  0  2.2   1;
 102  106  100  138  60  0  0    0.0497  0.192   0.052   0      0  2.08  0  2.2   1;
 109  103  100  138  60  0  0    0.0308  0.119   0.0322  0      0  2.08  0  2.2   1;
 109  104  100  138  60  0  0    0.0268  0.1037  0.0281  0      0  2.08  0  2.2   1;
 110  105  100  138  60  0  0    0.0228  0.0883  0.0239  0      0  2.08  0  2.2   1;
 103  124  100  138  60  0  0.6  0.0023  0.0839  0       1.015  0  5.1   0  6     1;
 110  106  100  138  60  0  0    0.0139  0.0605  2.459   0      0  1.93  0  2     1;
 107  108  100  138  60  0  0    0.0159  0.0614  0.0166  0      0  2.08  0  2.2   1;
 109  108  100  138  60  0  0    0.0427  0.1651  0.0447  0      0  2.08  0  2.2   1;
 110  108  100  138  60  0  0    0.0427  0.1651  0.0447  0      0  2.08  0  2.2   1;
 113  111  100  230  60  0  0    0.006   0.048   0.1     0      0  6     0  6.25  1;
 114  111  100  230  60  0  0    0.0054  0.0418  0.0879  0      0  6     0  6.25  1;
 109  111  100  138  60  0  0.6  0.0023  0.0839  0       1.03   0  5.1   0  6     1;
 113  112  100  230  60  0  0    0.006   0.048   0.1     0      0  6     0  6.25  1;
 123  112  100  230  60  0  0    0.0124  0.0966  0.203   0      0  6     0  6.25  1;
 113  123  100  230  60  0  0    0.0111  0.0865  0.1818  0      0  6     0  6.25  1;
 116  114  100  230  60  0  0    0.005   0.0589  0.0818  0      0  6     0  6.25  1;
 116  115  100  230  60  0  0    0.0022  0.0173  0.0364  0      0  6     0  6.25  1;
 121  115  100  230  60  0  0    0.0063  0.049   0.103   0      0  6     0  6.25  1;
 121  115  100  230  60  0  0    0.0063  0.049   0.103   0      0  6     0  6.25  1;
 115  124  100  230  60  0  0    0.0067  0.0519  0.1091  0      0  6     0  6.25  1;
 117  116  100  230  60  0  0    0.003   0.0259  0.0545  0      0  6     0  6.25  1;
 119  116  100  230  60  0  0    0.003   0.0231  0.0485  0      0  6     0  6.25  1;
 118  117  100  230  60  0  0    0.0018  0.0144  0.0303  0      0  6     0  6.25  1;
 109  112  100  138  60  0  0.6  0.0023  0.0839  0       1.03   0  5.1   0  6     1;
 122  117  100  230  60  0  0    0.0135  0.1053  0.2212  0      0  6     0  6.25  1;
 118  121  100  230  60  0  0    0.0033  0.0269  0.0545  0      0  6     0  6.25  1;
 118  121  100  230  60  0  0    0.0033  0.0269  0.0545  0      0  6     0  6.25  1;
 119  120  100  230  60  0  0    0.0051  0.0396  0.0833  0      0  6     0  6.25  1;
 119  120  100  230  60  0  0    0.0051  0.0396  0.0833  0      0  6     0  6.25  1;
 123  120  100  230  60  0  0    0.0028  0.0216  0.0455  0      0  6     0  6.25  1;
 123  120  100  230  60  0  0    0.0028  0.0216  0.0455  0      0  6     0  6.25  1;
 121  122  100  230  60  0  0    0.0087  0.0678  0.1424  0      0  6     0  6.25  1;
 110  112  100  138  60  0  0.6  0.0023  0.0839  0       1.015  0  5.1   0  6     1;
 110  111  100  138  60  0  0.6  0.0023  0.0839  0       1.015  0  5.1   0  6     1;
 201  202  100  138  60  0  0    0.0026  0.0139  0.4611  0      0  1.93  0  2     1;
 201  203  100  138  60  0  0    0.0546  0.2112  0.0572  0      0  2.08  0  2.2   1;
 201  205  100  138  60  0  0    0.0218  0.0845  0.0229  0      0  2.08  0  2.2   1;
 202  204  100  138  60  0  0    0.0328  0.1267  0.0343  0      0  2.08  0  2.2   1;
 202  206  100  138  60  0  0    0.0497  0.192   0.052   0      0  2.08  0  2.2   1;
 209  203  100  138  60  0  0    0.0308  0.119   0.0322  0      0  2.08  0  2.2   1;
 209  204  100  138  60  0  0    0.0268  0.1037  0.0281  0      0  2.08  0  2.2   1;
 210  205  100  138  60  0  0    0.0228  0.0883  0.0239  0      0  2.08  0  2.2   1;
 203  224  100  138  60  0  0.6  0.0023  0.0839  0       1.015  0  5.1   0  6     1;
 210  206  100  138  60  0  0    0.0139  0.0605  2.459   0      0  1.93  0  2     1;
 207  208  100  138  60  0  0    0.0159  0.0614  0.0166  0      0  2.08  0  2.2   1;
 209  208  100  138  60  0  0    0.0427  0.1651  0.0447  0      0  2.08  0  2.2   1;
 210  208  100  138  60  0  0    0.0427  0.1651  0.0447  0      0  2.08  0  2.2   1;
 213  211  100  230  60  0  0    0.006   0.048   0.1     0      0  6     0  6.25  1;
 214  211  100  230  60  0  0    0.0054  0.0418  0.0879  0      0  6     0  6.25  1;
 209  211  100  138  60  0  0.6  0.0023  0.0839  0       1.03   0  5.1   0  6     1;
 213  212  100  230  60  0  0    0.006   0.048   0.1     0      0  6     0  6.25  1;
 223  212  100  230  60  0  0    0.0124  0.0966  0.203   0      0  6     0  6.25  1;
 213  223  100  230  60  0  0    0.0111  0.0865  0.1818  0      0  6     0  6.25  1;
 216  214  100  230  60  0  0    0.005   0.0589  0.0818  0      0  6     0  6.25  1;
 216  215  100  230  60  0  0    0.0022  0.0173  0.0364  0      0  6     0  6.25  1;
 221  215  100  230  60  0  0    0.0063  0.049   0.103   0      0  6     0  6.25  1;
 221  215  100  230  60  0  0    0.0063  0.049   0.103   0      0  6     0  6.25  1;
 215  224  100  230  60  0  0    0.0067  0.0519  0.1091  0      0  6     0  6.25  1;
 217  216  100  230  60  0  0    0.003   0.0259  0.0545  0      0  6     0  6.25  1;
 219  216  100  230  60  0  0    0.003   0.0231  0.0485  0      0  6     0  6.25  1;
 218  217  100  230  60  0  0    0.0018  0.0144  0.0303  0      0  6     0  6.25  1;
 209  212  100  138  60  0  0.6  0.0023  0.0839  0       1.03   0  5.1   0  6     1;
 222  217  100  230  60  0  0    0.0135  0.1053  0.2212  0      0  6     0  6.25  1;
 218  221  100  230  60  0  0    0.0033  0.0269  0.0545  0      0  6     0  6.25  1;
 218  221  100  230  60  0  0    0.0033  0.0269  0.0545  0      0  6     0  6.25  1;
 219  220  100  230  60  0  0    0.0051  0.0396  0.0833  0      0  6     0  6.25  1;
 219  220  100  230  60  0  0    0.0051  0.0396  0.0833  0      0  6     0  6.25  1;
 223  220  100  230  60  0  0    0.0028  0.0216  0.0455  0      0  6     0  6.25  1;
 223  220  100  230  60  0  0    0.0028  0.0216  0.0455  0      0  6     0  6.25  1;
 221  222  100  230  60  0  0    0.0087  0.0678  0.1424  0      0  6     0  6.25  1;
 210  212  100  138  60  0  0.6  0.0023  0.0839  0       1.015  0  5.1   0  6     1;
 210  211  100  138  60  0  0.6  0.0023  0.0839  0       1.015  0  5.1   0  6     1;
 301  302  100  138  60  0  0    0.0026  0.0139  0.4611  0      0  1.93  0  2     1;
 301  303  100  138  60  0  0    0.0546  0.2112  0.0572  0      0  2.08  0  2.2   1;
 301  305  100  138  60  0  0    0.0218  0.0845  0.0229  0      0  2.08  0  2.2   1;
 302  304  100  138  60  0  0    0.0328  0.1267  0.0343  0      0  2.08  0  2.2   1;
 302  306  100  138  60  0  0    0.0497  0.192   0.052   0      0  2.08  0  2.2   1;
 309  303  100  138  60  0  0    0.0308  0.119   0.0322  0      0  2.08  0  2.2   1;
 309  304  100  138  60  0  0    0.0268  0.1037  0.0281  0      0  2.08  0  2.2   1;
 310  305  100  138  60  0  0    0.0228  0.0883  0.0239  0      0  2.08  0  2.2   1;
 303  324  100  138  60  0  0.6  0.0023  0.0839  0       1.015  0  5.1   0  6     1;
 310  306  100  138  60  0  0    0.0139  0.0605  2.459   0      0  1.93  0  2     1;
 307  308  100  138  60  0  0    0.0159  0.0614  0.0166  0      0  2.08  0  2.2   1;
 309  308  100  138  60  0  0    0.0427  0.1651  0.0447  0      0  2.08  0  2.2   1;
 310  308  100  138  60  0  0    0.0427  0.1651  0.0447  0      0  2.08  0  2.2   1;
 313  311  100  230  60  0  0    0.006   0.048   0.1     0      0  6     0  6.25  1;
 314  311  100  230  60  0  0    0.0054  0.0418  0.0879  0      0  6     0  6.25  1;
 309  311  100  138  60  0  0.6  0.0023  0.0839  0       1.03   0  5.1   0  6     1;
 313  312  100  230  60  0  0    0.006   0.048   0.1     0      0  6     0  6.25  1;
 323  312  100  230  60  0  0    0.0124  0.0966  0.203   0      0  6     0  6.25  1;
 313  323  100  230  60  0  0    0.0111  0.0865  0.1818  0      0  6     0  6.25  1;
 316  314  100  230  60  0  0    0.005   0.0589  0.0818  0      0  6     0  6.25  1;
 316  315  100  230  60  0  0    0.0022  0.0173  0.0364  0      0  6     0  6.25  1;
 321  315  100  230  60  0  0    0.0063  0.049   0.103   0      0  6     0  6.25  1;
 321  315  100  230  60  0  0    0.0063  0.049   0.103   0      0  6     0  6.25  1;
 315  324  100  230  60  0  0    0.0067  0.0519  0.1091  0      0  6     0  6.25  1;
 317  316  100  230  60  0  0    0.003   0.0259  0.0545  0      0  6     0  6.25  1;
 319  316  100  230  60  0  0    0.003   0.0231  0.0485  0      0  6     0  6.25  1;
 318  317  100  230  60  0  0    0.0018  0.0144  0.0303  0      0  6     0  6.25  1;
 309  312  100  138  60  0  0.6  0.0023  0.0839  0       1.03   0  5.1   0  6     1;
 322  317  100  230  60  0  0    0.0135  0.1053  0.2212  0      0  6     0  6.25  1;
 318  321  100  230  60  0  0    0.0033  0.0269  0.0545  0      0  6     0  6.25  1;
 318  321  100  230  60  0  0    0.0033  0.0269  0.0545  0      0  6     0  6.25  1;
 319  320  100  230  60  0  0    0.0051  0.0396  0.0833  0      0  6     0  6.25  1;
 319  320  100  230  60  0  0    0.0051  0.0396  0.0833  0      0  6     0  6.25  1;
 323  320  100  230  60  0  0    0.0028  0.0216  0.0455  0      0  6     0  6.25  1;
 323  320  100  230  60  0  0    0.0028  0.0216  0.0455  0      0  6     0  6.25  1;
 321  322  100  230  60  0  0    0.0087  0.0678  0.1424  0      0  6     0  6.25  1;
 310  312  100  138  60  0  0.6  0.0023  0.0839  0       1.015  0  5.1   0  6     1;
 310  311  100  138  60  0  0.6  0.0023  0.0839  0       1.015  0  5.1   0  6     1;
 107  203  100  138  60  0  0    0.042   0.161   0.044   0      0  2.08  0  2.20  1; 
 113  215  100  230  60  0  0    0.010   0.075   0.158   0      0  6.00  0  6.25  1; 
 123  217  100  230  60  0  0    0.010   0.074   0.155   0      0  6.00  0  6.25  1; 
 325  121  100  230  60  0  0    0.012   0.097   0.203   0      0  6.00  0  6.25  1; 
 318  223  100  230  60  0  0    0.013   0.104   0.218   0      0  6.00  0  6.25  1; 
 323  325  100  230  60  0  1    0.000   0.009   0       1.00   0  8.93  0  8.93  1;
 ];

SW.con = [ ... 
  13  100  230  1.02  0  2.4  0  1.05  0.95  4.7321  1  1  1;
 ];

PV.con = [ ... 
  101  100  138  1.72  1.035  0.8   -0.5   1.05  0.95  1  1;
  102  100  138  1.72  1.035  0.8   -0.5   1.05  0.95  1  1;
  107  100  138  2.4   1.025  1.8    0     1.05  0.95  1  1;
  114  100  230  0     0.98   2     -0.5   1.05  0.95  1  1;
  115  100  230  2.15  1.014  1.1   -0.5   1.05  0.95  1  1;
  116  100  230  1.55  1.017  0.8   -0.5   1.05  0.95  1  1;
  118  100  230  4     1.05   2     -0.5   1.05  0.95  1  1;
  121  100  230  4     1.05   2     -0.5   1.05  0.95  1  1;
  122  100  230  3     1.05   0.96  -0.6   1.05  0.95  1  1;
  123  100  230  6.6   1.05   3.1   -1.25  1.05  0.95  1  1;

  201  100  138  1.72  1.035  0.8   -0.5   1.05  0.95  1  1;
  202  100  138  1.72  1.035  0.8   -0.5   1.05  0.95  1  1;
  207  100  138  2.4   1.025  1.8    0     1.05  0.95  1  1;
  213  100  230  2.85  1.020  2.4    0     1.05  0.95  1  1;
  214  100  230  0     0.98   2     -0.5   1.05  0.95  1  1;
  215  100  230  2.15  1.014  1.1   -0.5   1.05  0.95  1  1;
  216  100  230  1.55  1.017  0.8   -0.5   1.05  0.95  1  1;
  218  100  230  4     1.05   2     -0.5   1.05  0.95  1  1;
  221  100  230  4     1.05   2     -0.5   1.05  0.95  1  1;
  222  100  230  3     1.05   0.96  -0.6   1.05  0.95  1  1;
  223  100  230  6.6   1.05   3.1   -1.25  1.05  0.95  1  1;

  301  100  138  1.72  1.035  0.8   -0.5   1.05  0.95  1  1;
  302  100  138  1.72  1.035  0.8   -0.5   1.05  0.95  1  1;
  307  100  138  2.4   1.025  1.8    0     1.05  0.95  1  1;
  313  100  230  2.85  1.020  2.4    0     1.05  0.95  1  1;
  314  100  230  0     0.98   2     -0.5   1.05  0.95  1  1;
  315  100  230  2.15  1.014  1.1   -0.5   1.05  0.95  1  1;
  316  100  230  1.55  1.017  0.8   -0.5   1.05  0.95  1  1;
  318  100  230  4     1.05   2     -0.5   1.05  0.95  1  1;
  321  100  230  4     1.05   2     -0.5   1.05  0.95  1  1;
  322  100  230  3     1.05   0.96  -0.6   1.05  0.95  1  1;
  323  100  230  6.6   1.05   3.1   -1.25  1.05  0.95  1  1;
 ];

PQ.con = [ ... 
  101  100  138  1.08  0.22  1.05  0.95  1  1;
  102  100  138  0.97  0.2   1.05  0.95  1  1;
  103  100  138  1.8   0.37  1.05  0.95  1  1;
  104  100  138  0.74  0.15  1.05  0.95  1  1;
  105  100  138  0.71  0.14  1.05  0.95  1  1;
  106  100  138  1.36  0.28  1.05  0.95  1  1;
  107  100  138  1.25  0.25  1.05  0.95  1  1;
  108  100  138  1.71  0.35  1.05  0.95  1  1;
  109  100  138  1.75  0.36  1.05  0.95  1  1;
  110  100  138  1.95  0.4   1.05  0.95  1  1;
  113  100  230  2.65  0.54  1.05  0.95  1  1;
  114  100  230  1.94  0.39  1.05  0.95  1  1;
  115  100  230  3.17  0.64  1.05  0.95  1  1;
  116  100  230  1     0.2   1.05  0.95  1  1;
  118  100  230  3.33  0.68  1.05  0.95  1  1;
  119  100  230  1.81  0.37  1.05  0.95  1  1;
  120  100  230  1.28  0.26  1.05  0.95  1  1;

  201  100  138  1.08  0.22  1.05  0.95  1  1;
  202  100  138  0.97  0.2   1.05  0.95  1  1;
  203  100  138  1.8   0.37  1.05  0.95  1  1;
  204  100  138  0.74  0.15  1.05  0.95  1  1;
  205  100  138  0.71  0.14  1.05  0.95  1  1;
  206  100  138  1.36  0.28  1.05  0.95  1  1;
  207  100  138  1.25  0.25  1.05  0.95  1  1;
  208  100  138  1.71  0.35  1.05  0.95  1  1;
  209  100  138  1.75  0.36  1.05  0.95  1  1;
  210  100  138  1.95  0.4   1.05  0.95  1  1;
  213  100  230  2.65  0.54  1.05  0.95  1  1;
  214  100  230  1.94  0.39  1.05  0.95  1  1;
  215  100  230  3.17  0.64  1.05  0.95  1  1;
  216  100  230  1     0.2   1.05  0.95  1  1;
  218  100  230  3.33  0.68  1.05  0.95  1  1;
  219  100  230  1.81  0.37  1.05  0.95  1  1;
  220  100  230  1.28  0.26  1.05  0.95  1  1;

  301  100  138  1.08  0.22  1.05  0.95  1  1;
  302  100  138  0.97  0.2   1.05  0.95  1  1;
  303  100  138  1.8   0.37  1.05  0.95  1  1;
  304  100  138  0.74  0.15  1.05  0.95  1  1;
  305  100  138  0.71  0.14  1.05  0.95  1  1;
  306  100  138  1.36  0.28  1.05  0.95  1  1;
  307  100  138  1.25  0.25  1.05  0.95  1  1;
  308  100  138  1.71  0.35  1.05  0.95  1  1;
  309  100  138  1.75  0.36  1.05  0.95  1  1;
  310  100  138  1.95  0.4   1.05  0.95  1  1;
  313  100  230  2.65  0.54  1.05  0.95  1  1;
  314  100  230  1.94  0.39  1.05  0.95  1  1;
  315  100  230  3.17  0.64  1.05  0.95  1  1;
  316  100  230  1     0.2   1.05  0.95  1  1;
  318  100  230  3.33  0.68  1.05  0.95  1  1;
  319  100  230  1.81  0.37  1.05  0.95  1  1;
  320  100  230  1.28  0.26  1.05  0.95  1  1;
 ];

Shunt.con = [ ... 
  106  100  138  60  0  -1  1;
  206  100  138  60  0  -1  1;
  306  100  138  60  0  -1  1;
 ];

Demand.con = [ ... 
  101  100  1.188  0.242  1.4256  0.9504  0  0  18  0  0  0  0  0  0  0  0  1;
  102  100  1.067  0.22   1.2804  0.8536  0  0  25  0  0  0  0  0  0  0  0  1;
  103  100  1.98   0.407  2.376   1.584   0  0  19  0  0  0  0  0  0  0  0  1;
  104  100  0.814  0.165  0.9768  0.6512  0  0  24  0  0  0  0  0  0  0  0  1;
  105  100  0.781  0.154  0.9372  0.6248  0  0  22  0  0  0  0  0  0  0  0  1;
  106  100  1.496  0.308  1.7952  1.1968  0  0  19  0  0  0  0  0  0  0  0  1;
  107  100  1.375  0.275  1.65    1.1     0  0  22  0  0  0  0  0  0  0  0  1;
  108  100  1.881  0.385  2.2572  1.5048  0  0  20  0  0  0  0  0  0  0  0  1;
  109  100  1.925  0.396  2.31    1.54    0  0  20  0  0  0  0  0  0  0  0  1;
  110  100  2.145  0.44   2.574   1.716   0  0  19  0  0  0  0  0  0  0  0  1;
  113  100  2.915  0.594  3.498   2.332   0  0  19  0  0  0  0  0  0  0  0  1;
  114  100  2.134  0.429  2.5608  1.7072  0  0  25  0  0  0  0  0  0  0  0  1;
  115  100  3.847  0.704  4.6164  3.0776  0  0  25  0  0  0  0  0  0  0  0  1;
  116  100  1.1    0.22   1.32    0.88    0  0  23  0  0  0  0  0  0  0  0  1;
  118  100  3.663  0.748  4.3956  2.9304  0  0  18  0  0  0  0  0  0  0  0  1;
  119  100  1.991  0.407  2.3892  1.5928  0  0  19  0  0  0  0  0  0  0  0  1;
  120  100  1.408  0.286  1.6896  1.1264  0  0  23  0  0  0  0  0  0  0  0  1;

  201  100  1.188  0.242  1.4256  0.9504  0  0  18  0  0  0  0  0  0  0  0  1;
  202  100  1.067  0.22   1.2804  0.8536  0  0  25  0  0  0  0  0  0  0  0  1;
  203  100  1.98   0.407  2.376   1.584   0  0  19  0  0  0  0  0  0  0  0  1;
  204  100  0.814  0.165  0.9768  0.6512  0  0  24  0  0  0  0  0  0  0  0  1;
  205  100  0.781  0.154  0.9372  0.6248  0  0  22  0  0  0  0  0  0  0  0  1;
  206  100  1.496  0.308  1.7952  1.1968  0  0  19  0  0  0  0  0  0  0  0  1;
  207  100  1.375  0.275  1.65    1.1     0  0  22  0  0  0  0  0  0  0  0  1;
  208  100  1.881  0.385  2.2572  1.5048  0  0  20  0  0  0  0  0  0  0  0  1;
  209  100  1.925  0.396  2.31    1.54    0  0  20  0  0  0  0  0  0  0  0  1;
  210  100  2.145  0.44   2.574   1.716   0  0  19  0  0  0  0  0  0  0  0  1;
  213  100  2.915  0.594  3.498   2.332   0  0  19  0  0  0  0  0  0  0  0  1;
  214  100  2.134  0.429  2.5608  1.7072  0  0  25  0  0  0  0  0  0  0  0  1;
  215  100  3.847  0.704  4.6164  3.0776  0  0  25  0  0  0  0  0  0  0  0  1;
  216  100  1.1    0.22   1.32    0.88    0  0  23  0  0  0  0  0  0  0  0  1;
  218  100  3.663  0.748  4.3956  2.9304  0  0  18  0  0  0  0  0  0  0  0  1;
  219  100  1.991  0.407  2.3892  1.5928  0  0  19  0  0  0  0  0  0  0  0  1;
  220  100  1.408  0.286  1.6896  1.1264  0  0  23  0  0  0  0  0  0  0  0  1;

  301  100  1.188  0.242  1.4256  0.9504  0  0  18  0  0  0  0  0  0  0  0  1;
  302  100  1.067  0.22   1.2804  0.8536  0  0  25  0  0  0  0  0  0  0  0  1;
  303  100  1.98   0.407  2.376   1.584   0  0  19  0  0  0  0  0  0  0  0  1;
  304  100  0.814  0.165  0.9768  0.6512  0  0  24  0  0  0  0  0  0  0  0  1;
  305  100  0.781  0.154  0.9372  0.6248  0  0  22  0  0  0  0  0  0  0  0  1;
  306  100  1.496  0.308  1.7952  1.1968  0  0  19  0  0  0  0  0  0  0  0  1;
  307  100  1.375  0.275  1.65    1.1     0  0  22  0  0  0  0  0  0  0  0  1;
  308  100  1.881  0.385  2.2572  1.5048  0  0  20  0  0  0  0  0  0  0  0  1;
  309  100  1.925  0.396  2.31    1.54    0  0  20  0  0  0  0  0  0  0  0  1;
  310  100  2.145  0.44   2.574   1.716   0  0  19  0  0  0  0  0  0  0  0  1;
  313  100  2.915  0.594  3.498   2.332   0  0  19  0  0  0  0  0  0  0  0  1;
  314  100  2.134  0.429  2.5608  1.7072  0  0  25  0  0  0  0  0  0  0  0  1;
  315  100  3.847  0.704  4.6164  3.0776  0  0  25  0  0  0  0  0  0  0  0  1;
  316  100  1.1    0.22   1.32    0.88    0  0  23  0  0  0  0  0  0  0  0  1;
  318  100  3.663  0.748  4.3956  2.9304  0  0  18  0  0  0  0  0  0  0  0  1;
  319  100  1.991  0.407  2.3892  1.5928  0  0  19  0  0  0  0  0  0  0  0  1;
  320  100  1.408  0.286  1.6896  1.1264  0  0  23  0  0  0  0  0  0  0  0  1;
 ];

Supply.con = [ ... 
  101  100  0.1     0.2   0.1     0  1.72   24.8415  0.36505   0  0  0  0  0  1  0.1   0      0  0  1;
  101  100  0.1     0.2   0.1     0  1.72   24.8415  0.36505   0  0  0  0  0  1  0.1   0      0  0  1;
  101  100  0.76    0.76  0.152   0  3.5    10.2386  0.038404  0  0  0  0  0  1  0.3   -0.25  0  0  1;
  101  100  0.76    0.76  0.152   0  3.5    10.2386  0.038404  0  0  0  0  0  1  0.3   -0.25  0  0  1;
  102  100  0.1     0.2   0.1     0  1.72   24.8415  0.36505   0  0  0  0  0  1  0.1   0      0  0  1;
  102  100  0.1     0.2   0.1     0  1.72   24.8415  0.36505   0  0  0  0  0  1  0.1   0      0  0  1;
  102  100  0.76    0.76  0.152   0  3.5    10.2386  0.038404  0  0  0  0  0  1  0.3   -0.25  0  0  1;
  102  100  0.76    0.76  0.152   0  3.5    10.2386  0.038404  0  0  0  0  0  1  0.3   -0.25  0  0  1;
  107  100  0.8     1     0.25    0  -0.65  17.9744  0.027484  0  0  0  0  0  1  0.6   0      0  0  1;
  107  100  0.8     1     0.25    0  -0.65  17.9744  0.027484  0  0  0  0  0  1  0.6   0      0  0  1;
  107  100  0.8     1     0.25    0  -0.65  17.9744  0.027484  0  0  0  0  0  1  0.6   0      0  0  1;
  113  100  1.5774  1.97  0.6895  0  0.58   18.47    0.010109  0  0  0  0  0  1  0.8   0      0  0  1;
  113  100  1.5774  1.97  0.6895  0  0.58   18.47    0.010109  0  0  0  0  0  1  0.8   0      0  0  1;
  113  100  1.5774  1.97  0.6895  0  0.58   18.47    0.010109  0  0  0  0  0  1  0.8   0      0  0  1;
  115  100  1.55    1.55  0.5425  0  1.09   9.5369   0.005586  0  0  0  0  0  1  0.8   -0.5   0  0  1;
  115  100  0.12    0.12  0.024   0  1.11   21.2267  0.379372  0  0  0  0  0  1  0.06  0      0  0  1;
  115  100  0.12    0.12  0.024   0  1.11   21.2267  0.379372  0  0  0  0  0  1  0.06  0      0  0  1;
  115  100  0.12    0.12  0.024   0  1.11   21.2267  0.379372  0  0  0  0  0  1  0.06  0      0  0  1;
  115  100  0.12    0.12  0.024   0  1.11   21.2267  0.379372  0  0  0  0  0  1  0.06  0      0  0  1;
  115  100  0.12    0.12  0.024   0  1.11   21.2267  0.379372  0  0  0  0  0  1  0.06  0      0  0  1;
  116  100  1.55    1.55  0.5425  0  1.09   9.5369   0.005586  0  0  0  0  0  1  0.8   -0.5   0  0  1;
  118  100  4       4     1       0  5.76   5.2301   6.7e-05   0  0  0  0  0  1  2     -0.5   0  0  1;
  121  100  4       4     1       0  5.76   5.2301   6.7e-05   0  0  0  0  0  1  2     -0.5   0  0  1;
  122  100  0.5     0.5   0       0  0      1        0         0  0  0  0  0  1  0.16  -0.1   0  0  1;
  122  100  0.5     0.5   0       0  0      1        0         0  0  0  0  0  1  0.16  -0.1   0  0  1;
  122  100  0.5     0.5   0       0  0      1        0         0  0  0  0  0  1  0.16  -0.1   0  0  1;
  122  100  0.5     0.5   0       0  0      1        0         0  0  0  0  0  1  0.16  -0.1   0  0  1;
  122  100  0.5     0.5   0       0  0      1        0         0  0  0  0  0  1  0.16  -0.1   0  0  1;
  122  100  0.5     0.5   0       0  0      1        0         0  0  0  0  0  1  0.16  -0.1   0  0  1;
  123  100  1.55    1.55  0.5425  0  1.09  9.5369    0.005586  0  0  0  0  0  1  0.8   -0.5   0  0  1;
  123  100  1.55    1.55  0.5425  0  1.09  9.5369    0.005586  0  0  0  0  0  1  0.8   -0.5   0  0  1;
  123  100  3.5     3.5   1.4     0  1.64  9.5856    0.003152  0  0  0  0  0  1  1.5   -0.25  0  0  1;

  201  100  0.1     0.2   0.1     0  1.72   24.8415  0.36505   0  0  0  0  0  1  0.1   0      0  0  1;
  201  100  0.1     0.2   0.1     0  1.72   24.8415  0.36505   0  0  0  0  0  1  0.1   0      0  0  1;
  201  100  0.76    0.76  0.152   0  3.5    10.2386  0.038404  0  0  0  0  0  1  0.3   -0.25  0  0  1;
  201  100  0.76    0.76  0.152   0  3.5    10.2386  0.038404  0  0  0  0  0  1  0.3   -0.25  0  0  1;
  202  100  0.1     0.2   0.1     0  1.72   24.8415  0.36505   0  0  0  0  0  1  0.1   0      0  0  1;
  202  100  0.1     0.2   0.1     0  1.72   24.8415  0.36505   0  0  0  0  0  1  0.1   0      0  0  1;
  202  100  0.76    0.76  0.152   0  3.5    10.2386  0.038404  0  0  0  0  0  1  0.3   -0.25  0  0  1;
  202  100  0.76    0.76  0.152   0  3.5    10.2386  0.038404  0  0  0  0  0  1  0.3   -0.25  0  0  1;
  207  100  0.8     1     0.25    0  -0.65  17.9744  0.027484  0  0  0  0  0  1  0.6   0      0  0  1;
  207  100  0.8     1     0.25    0  -0.65  17.9744  0.027484  0  0  0  0  0  1  0.6   0      0  0  1;
  207  100  0.8     1     0.25    0  -0.65  17.9744  0.027484  0  0  0  0  0  1  0.6   0      0  0  1;
  213  100  1.5774  1.97  0.6895  0  0.58   18.47    0.010109  0  0  0  0  0  1  0.8   0      0  0  1;
  213  100  1.5774  1.97  0.6895  0  0.58   18.47    0.010109  0  0  0  0  0  1  0.8   0      0  0  1;
  213  100  1.5774  1.97  0.6895  0  0.58   18.47    0.010109  0  0  0  0  0  1  0.8   0      0  0  1;
  215  100  1.55    1.55  0.5425  0  1.09   9.5369   0.005586  0  0  0  0  0  1  0.8   -0.5   0  0  1;
  215  100  0.12    0.12  0.024   0  1.11   21.2267  0.379372  0  0  0  0  0  1  0.06  0      0  0  1;
  215  100  0.12    0.12  0.024   0  1.11   21.2267  0.379372  0  0  0  0  0  1  0.06  0      0  0  1;
  215  100  0.12    0.12  0.024   0  1.11   21.2267  0.379372  0  0  0  0  0  1  0.06  0      0  0  1;
  215  100  0.12    0.12  0.024   0  1.11   21.2267  0.379372  0  0  0  0  0  1  0.06  0      0  0  1;
  215  100  0.12    0.12  0.024   0  1.11   21.2267  0.379372  0  0  0  0  0  1  0.06  0      0  0  1;
  216  100  1.55    1.55  0.5425  0  1.09   9.5369   0.005586  0  0  0  0  0  1  0.8   -0.5   0  0  1;
  218  100  4       4     1       0  5.76   5.2301   6.7e-05   0  0  0  0  0  1  2     -0.5   0  0  1;
  221  100  4       4     1       0  5.76   5.2301   6.7e-05   0  0  0  0  0  1  2     -0.5   0  0  1;
  222  100  0.5     0.5   0       0  0      1        0         0  0  0  0  0  1  0.16  -0.1   0  0  1;
  222  100  0.5     0.5   0       0  0      1        0         0  0  0  0  0  1  0.16  -0.1   0  0  1;
  222  100  0.5     0.5   0       0  0      1        0         0  0  0  0  0  1  0.16  -0.1   0  0  1;
  222  100  0.5     0.5   0       0  0      1        0         0  0  0  0  0  1  0.16  -0.1   0  0  1;
  222  100  0.5     0.5   0       0  0      1        0         0  0  0  0  0  1  0.16  -0.1   0  0  1;
  222  100  0.5     0.5   0       0  0      1        0         0  0  0  0  0  1  0.16  -0.1   0  0  1;
  223  100  1.55    1.55  0.5425  0  1.09  9.5369    0.005586  0  0  0  0  0  1  0.8   -0.5   0  0  1;
  223  100  1.55    1.55  0.5425  0  1.09  9.5369    0.005586  0  0  0  0  0  1  0.8   -0.5   0  0  1;
  223  100  3.5     3.5   1.4     0  1.64  9.5856    0.003152  0  0  0  0  0  1  1.5   -0.25  0  0  1;

  301  100  0.1     0.2   0.1     0  1.72   24.8415  0.36505   0  0  0  0  0  1  0.1   0      0  0  1;
  301  100  0.1     0.2   0.1     0  1.72   24.8415  0.36505   0  0  0  0  0  1  0.1   0      0  0  1;
  301  100  0.76    0.76  0.152   0  3.5    10.2386  0.038404  0  0  0  0  0  1  0.3   -0.25  0  0  1;
  301  100  0.76    0.76  0.152   0  3.5    10.2386  0.038404  0  0  0  0  0  1  0.3   -0.25  0  0  1;
  302  100  0.1     0.2   0.1     0  1.72   24.8415  0.36505   0  0  0  0  0  1  0.1   0      0  0  1;
  302  100  0.1     0.2   0.1     0  1.72   24.8415  0.36505   0  0  0  0  0  1  0.1   0      0  0  1;
  302  100  0.76    0.76  0.152   0  3.5    10.2386  0.038404  0  0  0  0  0  1  0.3   -0.25  0  0  1;
  302  100  0.76    0.76  0.152   0  3.5    10.2386  0.038404  0  0  0  0  0  1  0.3   -0.25  0  0  1;
  307  100  0.8     1     0.25    0  -0.65  17.9744  0.027484  0  0  0  0  0  1  0.6   0      0  0  1;
  307  100  0.8     1     0.25    0  -0.65  17.9744  0.027484  0  0  0  0  0  1  0.6   0      0  0  1;
  307  100  0.8     1     0.25    0  -0.65  17.9744  0.027484  0  0  0  0  0  1  0.6   0      0  0  1;
  313  100  1.5774  1.97  0.6895  0  0.58   18.47    0.010109  0  0  0  0  0  1  0.8   0      0  0  1;
  313  100  1.5774  1.97  0.6895  0  0.58   18.47    0.010109  0  0  0  0  0  1  0.8   0      0  0  1;
  313  100  1.5774  1.97  0.6895  0  0.58   18.47    0.010109  0  0  0  0  0  1  0.8   0      0  0  1;
  315  100  1.55    1.55  0.5425  0  1.09   9.5369   0.005586  0  0  0  0  0  1  0.8   -0.5   0  0  1;
  315  100  0.12    0.12  0.024   0  1.11   21.2267  0.379372  0  0  0  0  0  1  0.06  0      0  0  1;
  315  100  0.12    0.12  0.024   0  1.11   21.2267  0.379372  0  0  0  0  0  1  0.06  0      0  0  1;
  315  100  0.12    0.12  0.024   0  1.11   21.2267  0.379372  0  0  0  0  0  1  0.06  0      0  0  1;
  315  100  0.12    0.12  0.024   0  1.11   21.2267  0.379372  0  0  0  0  0  1  0.06  0      0  0  1;
  315  100  0.12    0.12  0.024   0  1.11   21.2267  0.379372  0  0  0  0  0  1  0.06  0      0  0  1;
  316  100  1.55    1.55  0.5425  0  1.09   9.5369   0.005586  0  0  0  0  0  1  0.8   -0.5   0  0  1;
  318  100  4       4     1       0  5.76   5.2301   6.7e-05   0  0  0  0  0  1  2     -0.5   0  0  1;
  321  100  4       4     1       0  5.76   5.2301   6.7e-05   0  0  0  0  0  1  2     -0.5   0  0  1;
  322  100  0.5     0.5   0       0  0      1        0         0  0  0  0  0  1  0.16  -0.1   0  0  1;
  322  100  0.5     0.5   0       0  0      1        0         0  0  0  0  0  1  0.16  -0.1   0  0  1;
  322  100  0.5     0.5   0       0  0      1        0         0  0  0  0  0  1  0.16  -0.1   0  0  1;
  322  100  0.5     0.5   0       0  0      1        0         0  0  0  0  0  1  0.16  -0.1   0  0  1;
  322  100  0.5     0.5   0       0  0      1        0         0  0  0  0  0  1  0.16  -0.1   0  0  1;
  322  100  0.5     0.5   0       0  0      1        0         0  0  0  0  0  1  0.16  -0.1   0  0  1;
  323  100  1.55    1.55  0.5425  0  1.09  9.5369    0.005586  0  0  0  0  0  1  0.8   -0.5   0  0  1;
  323  100  1.55    1.55  0.5425  0  1.09  9.5369    0.005586  0  0  0  0  0  1  0.8   -0.5   0  0  1;
  323  100  3.5     3.5   1.4     0  1.64  9.5856    0.003152  0  0  0  0  0  1  1.5   -0.25  0  0  1;
 ];

